STAAD SPACE
START JOB INFORMATION
ENGINEER DATE 28-Apr-22
END JOB INFORMATION
INPUT WIDTH 79
UNIT METER KN
JOINT COORDINATES
1 0 0 0; 2 1.9304 0 0; 3 4.1656 0 0; 4 7.7724 0 0; 5 10.6528 0 0; 6 0 3.4 0;
7 1.9304 3.4 0; 8 4.1656 3.4 0; 9 7.7724 3.4 0; 10 10.6528 3.4 0; 11 0 6.8 0;
12 1.9304 6.8 0; 13 4.1656 6.8 0; 14 7.7724 6.8 0; 15 10.6528 6.8 0;
16 0 10.2 0; 17 1.9304 10.2 0; 18 4.1656 10.2 0; 19 7.7724 10.2 0;
20 10.6528 10.2 0; 21 0 0 8.4709; 22 1.9304 0 8.4709; 23 4.1656 0 8.4709;
24 7.7724 0 8.4709; 25 10.6528 0 8.4709; 26 0 3.4 8.4709; 27 1.9304 3.4 8.4709;
28 4.1656 3.4 8.4709; 29 7.7724 3.4 8.4709; 30 10.6528 3.4 8.4709;
31 0 6.8 8.4709; 32 1.9304 6.8 8.4709; 33 4.1656 6.8 8.4709;
34 7.7724 6.8 8.4709; 35 10.6528 6.8 8.4709; 36 0 10.2 8.4709;
37 1.9304 10.2 8.4709; 38 4.1656 10.2 8.4709; 39 7.7724 10.2 8.4709;
40 10.6528 10.2 8.4709; 41 0 0 12.6111; 42 1.9304 0 12.6111;
43 4.1656 0 12.6111; 44 7.7724 0 12.6111; 45 10.6528 0 12.6111;
46 0 3.4 12.6111; 47 1.9304 3.4 12.6111; 48 4.1656 3.4 12.6111;
49 7.7724 3.4 12.6111; 50 10.6528 3.4 12.6111; 51 0 6.8 12.6111;
52 1.9304 6.8 12.6111; 53 4.1656 6.8 12.6111; 54 7.7724 6.8 12.6111;
55 10.6528 6.8 12.6111; 56 0 10.2 12.6111; 57 1.9304 10.2 12.6111;
58 4.1656 10.2 12.6111; 59 7.7724 10.2 12.6111; 60 10.6528 10.2 12.6111;
61 0 0 18.3998; 62 1.9304 0 18.3998; 63 4.1656 0 18.3998; 64 7.7724 0 18.3998;
65 10.6528 0 18.3998; 66 0 3.4 18.3998; 67 1.9304 3.4 18.3998;
68 4.1656 3.4 18.3998; 69 7.7724 3.4 18.3998; 70 10.6528 3.4 18.3998;
# ... 9 like lines cut
MEMBER INCIDENCES
1 6 7; 2 7 8; 3 8 9; 4 9 10; 5 11 12; 6 12 13; 7 13 14; 8 14 15; 9 16 17;
10 17 18; 11 18 19; 12 19 20; 13 1 6; 14 2 7; 15 3 8; 16 4 9; 17 5 10; 18 6 11;
19 7 12; 20 8 13; 21 9 14; 22 10 15; 23 11 16; 24 12 17; 25 13 18; 26 14 19;
27 15 20; 28 26 27; 29 27 28; 30 28 29; 31 29 83; 32 31 32; 33 32 33; 34 33 34;
35 34 85; 36 36 37; 37 37 38; 38 38 39; 39 39 90; 40 21 26; 41 22 27; 42 23 28;
43 24 29; 44 25 82; 45 26 31; 46 27 32; 47 28 33; 48 29 34; 49 30 88; 50 31 36;
51 32 37; 52 33 38; 53 34 39; 54 35 92; 55 46 47; 56 47 48; 57 48 49; 58 49 84;
59 51 52; 60 52 53; 61 53 54; 62 54 86; 63 56 57; 64 57 58; 65 58 59; 66 59 89;
67 41 46; 68 42 47; 69 43 48; 70 44 49; 71 45 81; 72 46 51; 73 47 52; 74 48 53;
75 49 54; 76 50 87; 77 51 56; 78 52 57; 79 53 58; 80 54 59; 81 55 91; 82 66 67;
83 67 68; 84 68 69; 85 69 70; 86 71 72; 87 72 73; 88 73 74; 89 74 75; 90 76 77;
91 77 78; 92 78 79; 93 79 80; 94 61 66; 95 62 67; 96 63 68; 97 64 69; 98 65 70;
99 66 71; 100 67 72; 101 68 73; 102 69 74; 103 70 75; 104 71 76; 105 72 77;
106 73 78; 107 74 79; 108 75 80; 109 6 26; 110 7 27; 111 8 28; 112 9 29;
113 10 30; 114 11 31; 115 12 32; 116 13 33; 117 14 34; 118 15 35; 119 16 36;
120 17 37; 121 18 38; 122 19 39; 123 20 40; 124 26 46; 125 27 47; 126 28 48;
127 29 49; 128 30 50; 129 31 51; 130 32 52; 131 33 53; 132 34 54; 133 35 55;
134 36 56; 135 37 57; 136 38 58; 137 39 59; 138 40 60; 139 46 66; 140 47 67;
141 48 68; 142 49 69; 143 50 70; 144 51 71; 145 52 72; 146 53 73; 147 54 74;
149 56 76; 150 57 77; 151 58 78; 152 59 79; 153 60 80; 154 81 50; 155 82 30;
156 82 81; 157 83 30; 158 84 50; 159 84 83; 160 85 35; 161 86 55; 166 89 60;
167 90 40; 168 90 89; 171 91 92; 173 50 94; 174 94 55; 175 30 95; 176 95 35;
177 75 55; 178 88 87; 179 86 85; 180 55 96; 181 35 97; 182 96 60; 183 97 40;
ELEMENT INCIDENCES SHELL
184 6 10 70 66; 185 11 15 75 71; 186 16 20 80 76;
ELEMENT PROPERTY
184 THICKNESS 0.15
185 THICKNESS 0.11
186 THICKNESS 0.1
DEFINE MATERIAL START
ISOTROPIC CONCRETE
E 2.17185e+007
POISSON 0.17
DENSITY 23.5616
ALPHA 1e-005
DAMP 0.05
TYPE CONCRETE
STRENGTH FCU 27579
END DEFINE MATERIAL
MEMBER PROPERTY AMERICAN
13 TO 17 40 TO 44 67 TO 71 94 TO 98 154 155 PRIS YD 0.55 ZD 0.55
1 TO 4 28 TO 31 55 TO 58 82 TO 85 109 TO 113 124 TO 128 139 TO 143 -
156 TO 159 PRIS YD 0.5 ZD 0.4
18 TO 22 45 TO 49 72 TO 76 99 TO 103 173 TO 176 PRIS YD 0.45 ZD 0.45
5 TO 8 32 TO 35 59 TO 62 86 TO 89 114 TO 118 129 TO 133 144 TO 147 160 161 -
177 TO 179 PRIS YD 0.45 ZD 0.35
23 TO 27 50 TO 54 77 TO 81 104 TO 108 180 TO 183 PRIS YD 0.45 ZD 0.45
9 TO 12 36 TO 39 63 TO 66 90 TO 93 119 TO 123 134 TO 138 149 TO 153 -
166 TO 168 171 PRIS YD 0.4 ZD 0.35
CONSTANTS
MATERIAL CONCRETE ALL
SUPPORTS
1 TO 5 21 TO 25 41 TO 45 61 TO 65 FIXED
LOAD 1 LOADTYPE Dead  TITLE DL
MEMBER LOAD
1 TO 12 82 TO 93 109 113 114 118 119 123 124 128 129 133 134 138 139 143 144 -
149 153 177 UNI GY -16.5
28 TO 39 55 TO 66 110 TO 112 115 TO 117 120 TO 122 125 TO 127 130 TO 132 135 -
136 TO 137 140 TO 142 145 TO 147 150 TO 152 157 158 160 161 166 -
167 UNI GY -1.488
156 171 178 UNI GY -24.17
159 168 179 UNI GY -16.06
LOAD 2 LOADTYPE Live  TITLE LL
FLOOR LOAD
YRANGE 3.4 6.8 FLOAD -4 GY
YRANGE 6.8 10.2 FLOAD -1.5 GY
PERFORM ANALYSIS
PERFORM ANALYSIS
START CONCRETE DESIGN
CODE INDIAN
FC 25000 MEMB 1 TO 147 149 TO 161 166 TO 168 171 173 TO 183
FYMAIN 550000 MEMB 1 TO 147 149 TO 161 166 TO 168 171 173 TO 183
FYSEC 550000 ALL
DESIGN BEAM 1 TO 147 149 TO 161 166 TO 168 171 173 TO 183
DESIGN COLUMN 1 TO 147 149 TO 161 166 TO 168 171 173 TO 183
CONCRETE TAKE
END CONCRETE DESIGN
FINISH
