STAAD SPACE
START JOB INFORMATION
ENGINEER DATE 28-Apr-22
END JOB INFORMATION
INPUT WIDTH 79
UNIT METER KN
JOINT COORDINATES
1 0 0 0; 2 4.97 0 0; 3 6.29 0 0; 4 11.83 0 0; 5 13.99 0 0; 6 0 3.4 0;
7 4.97 3.4 0; 8 6.29 3.4 0; 9 11.83 3.4 0; 10 13.99 3.4 0; 11 0 6.8 0;
12 4.97 6.8 0; 13 6.29 6.8 0; 14 11.83 6.8 0; 15 13.99 6.8 0; 16 0 10.2 0;
17 4.97 10.2 0; 18 6.29 10.2 0; 19 11.83 10.2 0; 20 13.99 10.2 0; 21 0 0 7.39;
22 4.97 0 7.39; 23 6.29 0 7.39; 24 11.83 0 7.39; 25 13.99 0 7.39;
26 0 3.4 7.39; 27 4.97 3.4 7.39; 28 6.29 3.4 7.39; 29 11.83 3.4 7.39;
30 13.99 3.4 7.39; 31 0 6.8 7.39; 32 4.97 6.8 7.39; 33 6.29 6.8 7.39;
34 11.83 6.8 7.39; 35 13.99 6.8 7.39; 36 0 10.2 7.39; 37 4.97 10.2 7.39;
38 6.29 10.2 7.39; 39 11.83 10.2 7.39; 40 13.99 10.2 7.39; 41 0 0 9.09;
42 4.97 0 9.09; 43 6.29 0 9.09; 44 11.83 0 9.09; 45 13.99 0 9.09;
46 0 3.4 9.09; 47 4.97 3.4 9.09; 48 6.29 3.4 9.09; 49 11.83 3.4 9.09;
50 13.99 3.4 9.09; 51 0 6.8 9.09; 52 4.97 6.8 9.09; 53 6.29 6.8 9.09;
54 11.83 6.8 9.09; 55 13.99 6.8 9.09; 56 0 10.2 9.09; 57 4.97 10.2 9.09;
58 6.29 10.2 9.09; 59 11.83 10.2 9.09; 60 13.99 10.2 9.09; 61 0 0 12.98;
62 4.97 0 12.98; 63 6.29 0 12.98; 64 11.83 0 12.98; 65 13.99 0 12.98;
66 0 3.4 12.98; 67 4.97 3.4 12.98; 68 6.29 3.4 12.98; 69 11.83 3.4 12.98;
70 13.99 3.4 12.98; 71 0 6.8 12.98; 72 4.97 6.8 12.98; 73 6.29 6.8 12.98;
74 11.83 6.8 12.98; 75 13.99 6.8 12.98; 76 0 10.2 12.98; 77 4.97 10.2 12.98;
78 6.29 10.2 12.98; 79 11.83 10.2 12.98; 80 13.99 10.2 12.98; 81 0 0 19.46;
82 4.97 0 19.46; 83 6.29 0 19.46; 84 11.83 0 19.46; 85 13.99 0 19.46;
# ... 8 like lines cut
MEMBER INCIDENCES
1 6 7; 2 7 8; 3 8 9; 4 9 10; 5 11 12; 6 12 13; 7 13 14; 8 14 15; 9 16 17;
10 17 18; 11 18 19; 12 19 20; 13 1 6; 14 2 7; 15 3 8; 16 4 9; 17 5 10; 18 6 11;
19 7 12; 20 8 13; 21 9 14; 22 10 15; 23 11 16; 24 12 17; 25 13 18; 26 14 19;
27 15 20; 28 26 27; 29 27 28; 30 28 29; 31 29 30; 32 31 32; 33 32 33; 34 33 34;
35 34 35; 36 36 37; 37 37 38; 38 38 39; 39 39 40; 40 21 26; 41 22 27; 42 23 28;
43 24 29; 44 25 30; 45 26 31; 46 27 32; 47 28 33; 48 29 34; 49 30 35; 50 31 36;
51 32 37; 52 33 38; 53 34 39; 54 35 40; 55 46 103; 56 47 48; 57 48 49;
58 49 50; 59 51 107; 60 52 53; 61 53 54; 62 54 55; 63 56 111; 64 57 58;
65 58 59; 66 59 60; 67 41 101; 68 42 47; 69 43 48; 70 44 49; 71 45 50;
72 46 105; 73 47 52; 74 48 53; 75 49 54; 76 50 55; 77 51 110; 78 52 57;
79 53 58; 80 54 59; 81 55 60; 82 66 104; 83 67 68; 84 68 69; 85 69 70;
86 71 108; 87 72 73; 88 73 74; 89 74 75; 90 76 112; 91 77 78; 92 78 79;
93 79 80; 94 61 102; 95 62 67; 96 63 68; 97 64 69; 98 65 70; 99 66 114;
100 67 72; 101 68 73; 102 69 74; 103 70 75; 104 71 116; 105 72 77; 106 73 78;
107 74 79; 108 75 80; 109 86 87; 110 87 88; 111 88 89; 112 89 90; 113 91 92;
114 92 93; 115 93 94; 116 94 95; 117 96 97; 118 97 98; 119 98 99; 120 99 100;
121 81 86; 122 82 87; 123 83 88; 124 84 89; 125 85 90; 126 86 91; 127 87 92;
128 88 93; 129 89 94; 130 90 95; 131 91 96; 132 92 97; 133 93 98; 134 94 99;
135 95 100; 136 6 26; 137 7 27; 138 8 28; 139 9 29; 140 10 30; 141 11 31;
142 12 32; 143 13 33; 144 14 34; 145 15 35; 146 16 36; 147 17 37; 148 18 38;
# ... 11 like lines cut
ELEMENT INCIDENCES SHELL
222 6 10 90 86; 223 11 15 95 91; 224 16 20 100 96;
ELEMENT PROPERTY
222 THICKNESS 0.15
223 THICKNESS 0.11
224 THICKNESS 0.1
DEFINE MATERIAL START
ISOTROPIC CONCRETE
E 2.17185e+007
POISSON 0.17
DENSITY 23.5616
ALPHA 1e-005
DAMP 0.05
TYPE CONCRETE
STRENGTH FCU 27579
END DEFINE MATERIAL
MEMBER PROPERTY AMERICAN
13 TO 17 40 TO 44 67 TO 71 94 TO 98 121 TO 125 196 197 PRIS YD 0.55 ZD 0.55
1 TO 4 28 TO 31 55 TO 58 82 TO 85 109 TO 112 136 TO 140 151 TO 155 -
166 TO 170 181 TO 185 198 TO 201 PRIS YD 0.5 ZD 0.4
18 TO 22 45 TO 49 72 TO 76 99 TO 103 126 TO 130 202 203 214 TO 216 -
217 PRIS YD 0.45 ZD 0.45
5 TO 8 32 TO 35 59 TO 62 86 TO 89 113 TO 116 141 TO 145 156 TO 160 -
171 TO 175 186 TO 190 204 TO 207 PRIS YD 0.45 ZD 0.35
23 TO 27 50 TO 54 77 TO 81 104 TO 108 131 TO 135 208 209 218 TO 220 -
221 PRIS YD 0.45 ZD 0.45
9 TO 12 36 TO 39 63 TO 66 90 TO 93 117 TO 120 146 TO 150 161 TO 165 -
176 TO 180 191 TO 195 210 TO 213 PRIS YD 0.4 ZD 0.35
CONSTANTS
MATERIAL CONCRETE ALL
SUPPORTS
1 TO 5 21 TO 25 41 TO 45 61 TO 65 81 TO 85 FIXED
LOAD 1 LOADTYPE Dead  TITLE DL
MEMBER LOAD
1 TO 12 109 TO 120 136 140 141 145 146 150 151 155 156 160 161 165 166 170 -
171 175 176 180 181 185 186 190 191 195 UNI GY -16.5
28 TO 39 55 TO 66 82 TO 93 137 TO 139 142 TO 144 147 TO 149 152 TO 154 157 -
158 TO 159 162 TO 164 167 TO 169 172 TO 174 177 TO 179 182 TO 184 187 TO 189 -
192 TO 194 199 200 205 206 211 212 UNI GY -1.488
198 204 210 UNI GY -24.17
201 207 213 UNI GY -16.06
LOAD 2 LOADTYPE Live  TITLE LL
FLOOR LOAD
YRANGE 3.4 6.8 FLOAD -4 GY
YRANGE 6.8 10.2 FLOAD -1.5 GY
PERFORM ANALYSIS
START CONCRETE DESIGN
CODE ACI
FC 25000 MEMB 1 TO 221
FYMAIN 550000 MEMB 1 TO 221
FYSEC 550000 ALL
DESIGN BEAM 1 TO 221
DESIGN COLUMN 1 TO 221
CONCRETE TAKE
END CONCRETE DESIGN
PERFORM ANALYSIS
FINISH
